%chk=ethene1.chk
# opt freq hf/sto-3g geom=connectivity

Title Card Required

0 1
 C                 -1.33385010    1.54798817    0.00000000
 C                 -0.05621142    1.09609608    0.00000000
 H                  0.75716020    1.79131303    0.00000000
 H                 -1.52923983    2.59999713    0.00000000
 H                  0.13917831    0.04408712    0.00000000
 H                 -2.14722172    0.85277122    0.00000000

 1 2 2.0 4 1.0 6 1.0
 2 3 1.0 5 1.0
 3
 4
 5
 6

