%chk=h2s_dimer.chk
# opt freq hf/sto-3g geom=connectivity

Title Card Required

0 1
 S                  1.68476400    0.07734200   -0.07307400
 H                  1.92131600    0.13460900    1.23299600
 H                  2.02462400   -1.20660600   -0.13467600
 S                 -1.78334800   -0.08553300    0.01654900
 H                 -1.91799900    1.22598700   -0.17603000
 H                 -0.45060000   -0.02294200   -0.01789200

 1 2 1.0 3 1.0
 2
 3
 4 5 1.0 6 1.0
 5
 6

