%chk=h2o2.chk
# opt freq hf/sto-3g geom=connectivity

Title Card Required

0 1
 O                 -1.32132133    0.25525525    0.00000000
 H                 -1.64177592    1.16019108    0.00000000
 O                 -0.00132133    0.25525525    0.00000000
 H                  0.31913325   -0.64968058    0.00001737

 1 2 1.0 3 1.0
 2
 3 4 1.0
 4

