%chk=cyclohexane_chair.chk
# opt freq hf/sto-3g geom=connectivity

Title Card Required

0 1
 C                 -4.31928927    0.16549855    0.00000000
 C                 -2.80418327    0.16549855    0.00000000
 C                 -2.25225227    1.57657655    0.00000000
 C                 -2.80191527    2.38111355    1.16066100
 C                 -4.31704027    2.38177455    1.16017200
 C                 -4.86984027    0.97115355    1.15887600
 H                 -1.13365327    1.54258555    0.06271400
 H                 -2.43163427   -0.38013545    0.90656200
 H                 -2.42888927   -0.38436045   -0.90191000
 H                 -4.69197727    0.59852755   -0.96538500
 H                 -4.69488627   -0.88872145    0.06350200
 H                 -2.42938027    1.94626855    2.12527200
 H                 -2.42589227    3.43525055    1.09866600
 H                 -4.69236027    2.93120255    2.06228600
 H                 -4.68889527    2.92837555    0.25384900
 H                 -4.60383627    0.46543155    2.12419100
 H                 -5.98838827    1.00621455    1.09393800
 H                 -2.52087027    2.08220955   -0.96454600

 1 2 1.0 6 1.0 11 1.0 10 1.0
 2 3 1.0 8 1.0 9 1.0
 3 4 1.0 7 1.0 18 1.0
 4 5 1.0 12 1.0 13 1.0
 5 6 1.0 14 1.0 15 1.0
 6 17 1.0 16 1.0
 7
 8
 9
 10
 11
 12
 13
 14
 15
 16
 17
 18

