%chk=acetaldehyde.chk
# opt freq hf/sto-3g geom=connectivity

Title Card Required

0 1
 C                 -0.36036036    0.49549549    0.00000000
 O                  0.86695499    0.49549445   -0.00201325
 H                 -0.95250371   -0.44390747    0.00198167
 C                 -1.18155650    1.79827594    0.00000000
 H                 -0.94647137    2.36807047   -0.87462517
 H                 -2.22515587    1.56206301    0.00195098
 H                 -0.94361333    2.36987261    0.87267422

 1 2 2.0 3 1.0 4 1.0
 2
 3
 4 5 1.0 6 1.0 7 1.0
 5
 6
 7

