%chk=ch4.chk
# opt freq hf/sto-3g geom=connectivity

Title Card Required

0 1
 C                 -0.48048048    1.24624623    0.00000000
 H                 -0.12382606    0.23743623    0.00000000
 H                 -0.12380764    1.75064442    0.87365150
 H                 -0.12380764    1.75064442   -0.87365150
 H                 -1.55048048    1.24625941    0.00000000

 1 2 1.0 3 1.0 4 1.0 5 1.0
 2
 3
 4
 5

