%chk=butane.chk
# opt=modredundant hf/sto-3g geom=connectivity

Title Card Required

0 1
 C                 -3.02516521    1.09606971    0.00000000
 H                 -2.66851078    0.08725971    0.00000000
 H                 -2.66849237    1.60046790   -0.87365150
 H                 -4.09516521    1.09608290    0.00000000
 C                 -2.51182299    1.82202599    1.25740497
 H                 -1.44182299    1.82201266    1.25740471
 H                 -2.86849568    1.31762733    2.13105626
 C                 -3.02513901    3.27395803    1.25740516
 H                 -4.09513901    3.27397045    1.25738579
 H                 -2.66845072    3.77836267    0.38376369
 C                 -2.51181925    3.99990604    2.51482406
 H                 -1.44181925    3.99988944    2.51484480
 H                 -2.86847080    5.00871706    2.51482256
 H                 -2.86851063    3.49550383    3.38846567

 1 2 1.0 3 1.0 4 1.0 5 1.0
 2
 3
 4
 5 6 1.0 7 1.0 8 1.0
 6
 7
 8 9 1.0 10 1.0 11 1.0
 9
 10
 11 12 1.0 13 1.0 14 1.0
 12
 13
 14

D 5 1 8 11 S 15 24.000000

